/*--------------------------------*- C++ -*----------------------------------*\
| =========                 |                                                 |
| \\      /  F ield         | OpenFOAM: The Open Source CFD Toolbox           |
|  \\    /   O peration     | Version:  2.0.1                                 |
|   \\  /    A nd           | Web:      http://www.openfoam.org               |
|    \\/     M anipulation  |                                                 |
\*---------------------------------------------------------------------------*/

FoamFile
{
    version         2.0;
    format          ascii;
    class           dictionary;
	location		"system";
    object          controlDict;
}

// * * * * * * * * * * * * * * * * * * * * * * * * * * * * * * * * * * * * * //

application     interFoam;

startFrom       latestTime;

startTime       0.0;

stopAt          endTime;

endTime         50;

writeControl    adjustableRunTime;

writeInterval   1;

deltaT          0.01;

purgeWrite      0;

writeFormat     ascii;

writePrecision  6;

writeCompression compressed;

timeFormat      general;

timePrecision   6;

graphFormat     raw;

runTimeModifiable yes;

adjustTimeStep  yes;

maxCo           0.2;
maxAlphaCo      0.2;

maxDeltaT       0.2;

libs ( "libFentonWaveBC.so" "libOpenFOAM.so" );

// ************************************************************************* //
